<?xml version="1.0" encoding="UTF-8"?>

<!-- generated on 2025-05-11 23:16:47 by Eclipse SUMO duarouter Version 1.18.0
<configuration xmlns:xsi="http://www.w3.org/2001/XMLSchema-instance" xsi:noNamespaceSchemaLocation="http://sumo.dlr.de/xsd/duarouterConfiguration.xsd">

    <input>
        <net-file value="../network/three_way.net.xml"/>
        <route-files value="demand.rou.xml"/>
    </input>

    <output>
        <output-file value="output/trips.rou.xml"/>
    </output>

</configuration>
-->

<routes xmlns:xsi="http://www.w3.org/2001/XMLSchema-instance" xsi:noNamespaceSchemaLocation="http://sumo.dlr.de/xsd/routes_file.xsd">
    <vehicle id="early_morning_1.0" depart="0.00">
        <route edges="east_to_center center_to_west"/>
    </vehicle>
    <vehicle id="early_morning_2.0" depart="0.00">
        <route edges="south_to_center center_to_east"/>
    </vehicle>
    <vehicle id="early_morning_3.0" depart="0.00">
        <route edges="west_to_center center_to_east"/>
    </vehicle>
    <vehicle id="early_morning_4.0" depart="0.00">
        <route edges="east_to_center center_to_south"/>
    </vehicle>
    <vehicle id="early_morning_5.0" depart="0.00">
        <route edges="south_to_center center_to_west"/>
    </vehicle>
    <vehicle id="early_morning_6.0" depart="0.00">
        <route edges="west_to_center center_to_south"/>
    </vehicle>
    <vehicle id="early_morning_1.1" depart="180.00">
        <route edges="east_to_center center_to_west"/>
    </vehicle>
    <vehicle id="early_morning_2.1" depart="180.00">
        <route edges="south_to_center center_to_east"/>
    </vehicle>
    <vehicle id="early_morning_3.1" depart="180.00">
        <route edges="west_to_center center_to_east"/>
    </vehicle>
    <vehicle id="early_morning_4.1" depart="180.00">
        <route edges="east_to_center center_to_south"/>
    </vehicle>
    <vehicle id="early_morning_5.1" depart="180.00">
        <route edges="south_to_center center_to_west"/>
    </vehicle>
    <vehicle id="early_morning_6.1" depart="180.00">
        <route edges="west_to_center center_to_south"/>
    </vehicle>
    <vehicle id="early_morning_1.2" depart="360.00">
        <route edges="east_to_center center_to_west"/>
    </vehicle>
    <vehicle id="early_morning_2.2" depart="360.00">
        <route edges="south_to_center center_to_east"/>
    </vehicle>
    <vehicle id="early_morning_3.2" depart="360.00">
        <route edges="west_to_center center_to_east"/>
    </vehicle>
    <vehicle id="early_morning_4.2" depart="360.00">
        <route edges="east_to_center center_to_south"/>
    </vehicle>
    <vehicle id="early_morning_5.2" depart="360.00">
        <route edges="south_to_center center_to_west"/>
    </vehicle>
    <vehicle id="early_morning_6.2" depart="360.00">
        <route edges="west_to_center center_to_south"/>
    </vehicle>
    <vehicle id="early_morning_1.3" depart="540.00">
        <route edges="east_to_center center_to_west"/>
    </vehicle>
    <vehicle id="early_morning_2.3" depart="540.00">
        <route edges="south_to_center center_to_east"/>
    </vehicle>
    <vehicle id="early_morning_3.3" depart="540.00">
        <route edges="west_to_center center_to_east"/>
    </vehicle>
    <vehicle id="early_morning_4.3" depart="540.00">
        <route edges="east_to_center center_to_south"/>
    </vehicle>
    <vehicle id="early_morning_5.3" depart="540.00">
        <route edges="south_to_center center_to_west"/>
    </vehicle>
    <vehicle id="early_morning_6.3" depart="540.00">
        <route edges="west_to_center center_to_south"/>
    </vehicle>
    <vehicle id="early_morning_1.4" depart="720.00">
        <route edges="east_to_center center_to_west"/>
    </vehicle>
    <vehicle id="early_morning_2.4" depart="720.00">
        <route edges="south_to_center center_to_east"/>
    </vehicle>
    <vehicle id="early_morning_3.4" depart="720.00">
        <route edges="west_to_center center_to_east"/>
    </vehicle>
    <vehicle id="early_morning_4.4" depart="720.00">
        <route edges="east_to_center center_to_south"/>
    </vehicle>
    <vehicle id="early_morning_5.4" depart="720.00">
        <route edges="south_to_center center_to_west"/>
    </vehicle>
    <vehicle id="early_morning_6.4" depart="720.00">
        <route edges="west_to_center center_to_south"/>
    </vehicle>
    <vehicle id="early_morning_1.5" depart="900.00">
        <route edges="east_to_center center_to_west"/>
    </vehicle>
    <vehicle id="early_morning_2.5" depart="900.00">
        <route edges="south_to_center center_to_east"/>
    </vehicle>
    <vehicle id="early_morning_3.5" depart="900.00">
        <route edges="west_to_center center_to_east"/>
    </vehicle>
    <vehicle id="early_morning_4.5" depart="900.00">
        <route edges="east_to_center center_to_south"/>
    </vehicle>
    <vehicle id="early_morning_5.5" depart="900.00">
        <route edges="south_to_center center_to_west"/>
    </vehicle>
    <vehicle id="early_morning_6.5" depart="900.00">
        <route edges="west_to_center center_to_south"/>
    </vehicle>
    <vehicle id="early_morning_1.6" depart="1080.00">
        <route edges="east_to_center center_to_west"/>
    </vehicle>
    <vehicle id="early_morning_2.6" depart="1080.00">
        <route edges="south_to_center center_to_east"/>
    </vehicle>
    <vehicle id="early_morning_3.6" depart="1080.00">
        <route edges="west_to_center center_to_east"/>
    </vehicle>
    <vehicle id="early_morning_4.6" depart="1080.00">
        <route edges="east_to_center center_to_south"/>
    </vehicle>
    <vehicle id="early_morning_5.6" depart="1080.00">
        <route edges="south_to_center center_to_west"/>
    </vehicle>
    <vehicle id="early_morning_6.6" depart="1080.00">
        <route edges="west_to_center center_to_south"/>
    </vehicle>
    <vehicle id="early_morning_1.7" depart="1260.00">
        <route edges="east_to_center center_to_west"/>
    </vehicle>
    <vehicle id="early_morning_2.7" depart="1260.00">
        <route edges="south_to_center center_to_east"/>
    </vehicle>
    <vehicle id="early_morning_3.7" depart="1260.00">
        <route edges="west_to_center center_to_east"/>
    </vehicle>
    <vehicle id="early_morning_4.7" depart="1260.00">
        <route edges="east_to_center center_to_south"/>
    </vehicle>
    <vehicle id="early_morning_5.7" depart="1260.00">
        <route edges="south_to_center center_to_west"/>
    </vehicle>
    <vehicle id="early_morning_6.7" depart="1260.00">
        <route edges="west_to_center center_to_south"/>
    </vehicle>
    <vehicle id="early_morning_1.8" depart="1440.00">
        <route edges="east_to_center center_to_west"/>
    </vehicle>
    <vehicle id="early_morning_2.8" depart="1440.00">
        <route edges="south_to_center center_to_east"/>
    </vehicle>
    <vehicle id="early_morning_3.8" depart="1440.00">
        <route edges="west_to_center center_to_east"/>
    </vehicle>
    <vehicle id="early_morning_4.8" depart="1440.00">
        <route edges="east_to_center center_to_south"/>
    </vehicle>
    <vehicle id="early_morning_5.8" depart="1440.00">
        <route edges="south_to_center center_to_west"/>
    </vehicle>
    <vehicle id="early_morning_6.8" depart="1440.00">
        <route edges="west_to_center center_to_south"/>
    </vehicle>
    <vehicle id="early_morning_1.9" depart="1620.00">
        <route edges="east_to_center center_to_west"/>
    </vehicle>
    <vehicle id="early_morning_2.9" depart="1620.00">
        <route edges="south_to_center center_to_east"/>
    </vehicle>
    <vehicle id="early_morning_3.9" depart="1620.00">
        <route edges="west_to_center center_to_east"/>
    </vehicle>
    <vehicle id="early_morning_4.9" depart="1620.00">
        <route edges="east_to_center center_to_south"/>
    </vehicle>
    <vehicle id="early_morning_5.9" depart="1620.00">
        <route edges="south_to_center center_to_west"/>
    </vehicle>
    <vehicle id="early_morning_6.9" depart="1620.00">
        <route edges="west_to_center center_to_south"/>
    </vehicle>
    <vehicle id="early_morning_1.10" depart="1800.00">
        <route edges="east_to_center center_to_west"/>
    </vehicle>
    <vehicle id="early_morning_2.10" depart="1800.00">
        <route edges="south_to_center center_to_east"/>
    </vehicle>
    <vehicle id="early_morning_3.10" depart="1800.00">
        <route edges="west_to_center center_to_east"/>
    </vehicle>
    <vehicle id="early_morning_4.10" depart="1800.00">
        <route edges="east_to_center center_to_south"/>
    </vehicle>
    <vehicle id="early_morning_5.10" depart="1800.00">
        <route edges="south_to_center center_to_west"/>
    </vehicle>
    <vehicle id="early_morning_6.10" depart="1800.00">
        <route edges="west_to_center center_to_south"/>
    </vehicle>
    <vehicle id="early_morning_1.11" depart="1980.00">
        <route edges="east_to_center center_to_west"/>
    </vehicle>
    <vehicle id="early_morning_2.11" depart="1980.00">
        <route edges="south_to_center center_to_east"/>
    </vehicle>
    <vehicle id="early_morning_3.11" depart="1980.00">
        <route edges="west_to_center center_to_east"/>
    </vehicle>
    <vehicle id="early_morning_4.11" depart="1980.00">
        <route edges="east_to_center center_to_south"/>
    </vehicle>
    <vehicle id="early_morning_5.11" depart="1980.00">
        <route edges="south_to_center center_to_west"/>
    </vehicle>
    <vehicle id="early_morning_6.11" depart="1980.00">
        <route edges="west_to_center center_to_south"/>
    </vehicle>
    <vehicle id="early_morning_1.12" depart="2160.00">
        <route edges="east_to_center center_to_west"/>
    </vehicle>
    <vehicle id="early_morning_2.12" depart="2160.00">
        <route edges="south_to_center center_to_east"/>
    </vehicle>
    <vehicle id="early_morning_3.12" depart="2160.00">
        <route edges="west_to_center center_to_east"/>
    </vehicle>
    <vehicle id="early_morning_4.12" depart="2160.00">
        <route edges="east_to_center center_to_south"/>
    </vehicle>
    <vehicle id="early_morning_5.12" depart="2160.00">
        <route edges="south_to_center center_to_west"/>
    </vehicle>
    <vehicle id="early_morning_6.12" depart="2160.00">
        <route edges="west_to_center center_to_south"/>
    </vehicle>
    <vehicle id="early_morning_1.13" depart="2340.00">
        <route edges="east_to_center center_to_west"/>
    </vehicle>
    <vehicle id="early_morning_2.13" depart="2340.00">
        <route edges="south_to_center center_to_east"/>
    </vehicle>
    <vehicle id="early_morning_3.13" depart="2340.00">
        <route edges="west_to_center center_to_east"/>
    </vehicle>
    <vehicle id="early_morning_4.13" depart="2340.00">
        <route edges="east_to_center center_to_south"/>
    </vehicle>
    <vehicle id="early_morning_5.13" depart="2340.00">
        <route edges="south_to_center center_to_west"/>
    </vehicle>
    <vehicle id="early_morning_6.13" depart="2340.00">
        <route edges="west_to_center center_to_south"/>
    </vehicle>
    <vehicle id="early_morning_1.14" depart="2520.00">
        <route edges="east_to_center center_to_west"/>
    </vehicle>
    <vehicle id="early_morning_2.14" depart="2520.00">
        <route edges="south_to_center center_to_east"/>
    </vehicle>
    <vehicle id="early_morning_3.14" depart="2520.00">
        <route edges="west_to_center center_to_east"/>
    </vehicle>
    <vehicle id="early_morning_4.14" depart="2520.00">
        <route edges="east_to_center center_to_south"/>
    </vehicle>
    <vehicle id="early_morning_5.14" depart="2520.00">
        <route edges="south_to_center center_to_west"/>
    </vehicle>
    <vehicle id="early_morning_6.14" depart="2520.00">
        <route edges="west_to_center center_to_south"/>
    </vehicle>
    <vehicle id="early_morning_1.15" depart="2700.00">
        <route edges="east_to_center center_to_west"/>
    </vehicle>
    <vehicle id="early_morning_2.15" depart="2700.00">
        <route edges="south_to_center center_to_east"/>
    </vehicle>
    <vehicle id="early_morning_3.15" depart="2700.00">
        <route edges="west_to_center center_to_east"/>
    </vehicle>
    <vehicle id="early_morning_4.15" depart="2700.00">
        <route edges="east_to_center center_to_south"/>
    </vehicle>
    <vehicle id="early_morning_5.15" depart="2700.00">
        <route edges="south_to_center center_to_west"/>
    </vehicle>
    <vehicle id="early_morning_6.15" depart="2700.00">
        <route edges="west_to_center center_to_south"/>
    </vehicle>
    <vehicle id="early_morning_1.16" depart="2880.00">
        <route edges="east_to_center center_to_west"/>
    </vehicle>
    <vehicle id="early_morning_2.16" depart="2880.00">
        <route edges="south_to_center center_to_east"/>
    </vehicle>
    <vehicle id="early_morning_3.16" depart="2880.00">
        <route edges="west_to_center center_to_east"/>
    </vehicle>
    <vehicle id="early_morning_4.16" depart="2880.00">
        <route edges="east_to_center center_to_south"/>
    </vehicle>
    <vehicle id="early_morning_5.16" depart="2880.00">
        <route edges="south_to_center center_to_west"/>
    </vehicle>
    <vehicle id="early_morning_6.16" depart="2880.00">
        <route edges="west_to_center center_to_south"/>
    </vehicle>
    <vehicle id="early_morning_1.17" depart="3060.00">
        <route edges="east_to_center center_to_west"/>
    </vehicle>
    <vehicle id="early_morning_2.17" depart="3060.00">
        <route edges="south_to_center center_to_east"/>
    </vehicle>
    <vehicle id="early_morning_3.17" depart="3060.00">
        <route edges="west_to_center center_to_east"/>
    </vehicle>
    <vehicle id="early_morning_4.17" depart="3060.00">
        <route edges="east_to_center center_to_south"/>
    </vehicle>
    <vehicle id="early_morning_5.17" depart="3060.00">
        <route edges="south_to_center center_to_west"/>
    </vehicle>
    <vehicle id="early_morning_6.17" depart="3060.00">
        <route edges="west_to_center center_to_south"/>
    </vehicle>
    <vehicle id="early_morning_1.18" depart="3240.00">
        <route edges="east_to_center center_to_west"/>
    </vehicle>
    <vehicle id="early_morning_2.18" depart="3240.00">
        <route edges="south_to_center center_to_east"/>
    </vehicle>
    <vehicle id="early_morning_3.18" depart="3240.00">
        <route edges="west_to_center center_to_east"/>
    </vehicle>
    <vehicle id="early_morning_4.18" depart="3240.00">
        <route edges="east_to_center center_to_south"/>
    </vehicle>
    <vehicle id="early_morning_5.18" depart="3240.00">
        <route edges="south_to_center center_to_west"/>
    </vehicle>
    <vehicle id="early_morning_6.18" depart="3240.00">
        <route edges="west_to_center center_to_south"/>
    </vehicle>
    <vehicle id="early_morning_1.19" depart="3420.00">
        <route edges="east_to_center center_to_west"/>
    </vehicle>
    <vehicle id="early_morning_2.19" depart="3420.00">
        <route edges="south_to_center center_to_east"/>
    </vehicle>
    <vehicle id="early_morning_3.19" depart="3420.00">
        <route edges="west_to_center center_to_east"/>
    </vehicle>
    <vehicle id="early_morning_4.19" depart="3420.00">
        <route edges="east_to_center center_to_south"/>
    </vehicle>
    <vehicle id="early_morning_5.19" depart="3420.00">
        <route edges="south_to_center center_to_west"/>
    </vehicle>
    <vehicle id="early_morning_6.19" depart="3420.00">
        <route edges="west_to_center center_to_south"/>
    </vehicle>
    <vehicle id="early_morning_1.20" depart="3600.00">
        <route edges="east_to_center center_to_west"/>
    </vehicle>
    <vehicle id="early_morning_2.20" depart="3600.00">
        <route edges="south_to_center center_to_east"/>
    </vehicle>
    <vehicle id="early_morning_3.20" depart="3600.00">
        <route edges="west_to_center center_to_east"/>
    </vehicle>
    <vehicle id="early_morning_4.20" depart="3600.00">
        <route edges="east_to_center center_to_south"/>
    </vehicle>
    <vehicle id="early_morning_5.20" depart="3600.00">
        <route edges="south_to_center center_to_west"/>
    </vehicle>
    <vehicle id="early_morning_6.20" depart="3600.00">
        <route edges="west_to_center center_to_south"/>
    </vehicle>
    <vehicle id="early_morning_1.21" depart="3780.00">
        <route edges="east_to_center center_to_west"/>
    </vehicle>
    <vehicle id="early_morning_2.21" depart="3780.00">
        <route edges="south_to_center center_to_east"/>
    </vehicle>
    <vehicle id="early_morning_3.21" depart="3780.00">
        <route edges="west_to_center center_to_east"/>
    </vehicle>
    <vehicle id="early_morning_4.21" depart="3780.00">
        <route edges="east_to_center center_to_south"/>
    </vehicle>
    <vehicle id="early_morning_5.21" depart="3780.00">
        <route edges="south_to_center center_to_west"/>
    </vehicle>
    <vehicle id="early_morning_6.21" depart="3780.00">
        <route edges="west_to_center center_to_south"/>
    </vehicle>
    <vehicle id="early_morning_1.22" depart="3960.00">
        <route edges="east_to_center center_to_west"/>
    </vehicle>
    <vehicle id="early_morning_2.22" depart="3960.00">
        <route edges="south_to_center center_to_east"/>
    </vehicle>
    <vehicle id="early_morning_3.22" depart="3960.00">
        <route edges="west_to_center center_to_east"/>
    </vehicle>
    <vehicle id="early_morning_4.22" depart="3960.00">
        <route edges="east_to_center center_to_south"/>
    </vehicle>
    <vehicle id="early_morning_5.22" depart="3960.00">
        <route edges="south_to_center center_to_west"/>
    </vehicle>
    <vehicle id="early_morning_6.22" depart="3960.00">
        <route edges="west_to_center center_to_south"/>
    </vehicle>
    <vehicle id="early_morning_1.23" depart="4140.00">
        <route edges="east_to_center center_to_west"/>
    </vehicle>
    <vehicle id="early_morning_2.23" depart="4140.00">
        <route edges="south_to_center center_to_east"/>
    </vehicle>
    <vehicle id="early_morning_3.23" depart="4140.00">
        <route edges="west_to_center center_to_east"/>
    </vehicle>
    <vehicle id="early_morning_4.23" depart="4140.00">
        <route edges="east_to_center center_to_south"/>
    </vehicle>
    <vehicle id="early_morning_5.23" depart="4140.00">
        <route edges="south_to_center center_to_west"/>
    </vehicle>
    <vehicle id="early_morning_6.23" depart="4140.00">
        <route edges="west_to_center center_to_south"/>
    </vehicle>
    <vehicle id="early_morning_1.24" depart="4320.00">
        <route edges="east_to_center center_to_west"/>
    </vehicle>
    <vehicle id="early_morning_2.24" depart="4320.00">
        <route edges="south_to_center center_to_east"/>
    </vehicle>
    <vehicle id="early_morning_3.24" depart="4320.00">
        <route edges="west_to_center center_to_east"/>
    </vehicle>
    <vehicle id="early_morning_4.24" depart="4320.00">
        <route edges="east_to_center center_to_south"/>
    </vehicle>
    <vehicle id="early_morning_5.24" depart="4320.00">
        <route edges="south_to_center center_to_west"/>
    </vehicle>
    <vehicle id="early_morning_6.24" depart="4320.00">
        <route edges="west_to_center center_to_south"/>
    </vehicle>
    <vehicle id="early_morning_1.25" depart="4500.00">
        <route edges="east_to_center center_to_west"/>
    </vehicle>
    <vehicle id="early_morning_2.25" depart="4500.00">
        <route edges="south_to_center center_to_east"/>
    </vehicle>
    <vehicle id="early_morning_3.25" depart="4500.00">
        <route edges="west_to_center center_to_east"/>
    </vehicle>
    <vehicle id="early_morning_4.25" depart="4500.00">
        <route edges="east_to_center center_to_south"/>
    </vehicle>
    <vehicle id="early_morning_5.25" depart="4500.00">
        <route edges="south_to_center center_to_west"/>
    </vehicle>
    <vehicle id="early_morning_6.25" depart="4500.00">
        <route edges="west_to_center center_to_south"/>
    </vehicle>
    <vehicle id="early_morning_1.26" depart="4680.00">
        <route edges="east_to_center center_to_west"/>
    </vehicle>
    <vehicle id="early_morning_2.26" depart="4680.00">
        <route edges="south_to_center center_to_east"/>
    </vehicle>
    <vehicle id="early_morning_3.26" depart="4680.00">
        <route edges="west_to_center center_to_east"/>
    </vehicle>
    <vehicle id="early_morning_4.26" depart="4680.00">
        <route edges="east_to_center center_to_south"/>
    </vehicle>
    <vehicle id="early_morning_5.26" depart="4680.00">
        <route edges="south_to_center center_to_west"/>
    </vehicle>
    <vehicle id="early_morning_6.26" depart="4680.00">
        <route edges="west_to_center center_to_south"/>
    </vehicle>
    <vehicle id="early_morning_1.27" depart="4860.00">
        <route edges="east_to_center center_to_west"/>
    </vehicle>
    <vehicle id="early_morning_2.27" depart="4860.00">
        <route edges="south_to_center center_to_east"/>
    </vehicle>
    <vehicle id="early_morning_3.27" depart="4860.00">
        <route edges="west_to_center center_to_east"/>
    </vehicle>
    <vehicle id="early_morning_4.27" depart="4860.00">
        <route edges="east_to_center center_to_south"/>
    </vehicle>
    <vehicle id="early_morning_5.27" depart="4860.00">
        <route edges="south_to_center center_to_west"/>
    </vehicle>
    <vehicle id="early_morning_6.27" depart="4860.00">
        <route edges="west_to_center center_to_south"/>
    </vehicle>
    <vehicle id="early_morning_1.28" depart="5040.00">
        <route edges="east_to_center center_to_west"/>
    </vehicle>
    <vehicle id="early_morning_2.28" depart="5040.00">
        <route edges="south_to_center center_to_east"/>
    </vehicle>
    <vehicle id="early_morning_3.28" depart="5040.00">
        <route edges="west_to_center center_to_east"/>
    </vehicle>
    <vehicle id="early_morning_4.28" depart="5040.00">
        <route edges="east_to_center center_to_south"/>
    </vehicle>
    <vehicle id="early_morning_5.28" depart="5040.00">
        <route edges="south_to_center center_to_west"/>
    </vehicle>
    <vehicle id="early_morning_6.28" depart="5040.00">
        <route edges="west_to_center center_to_south"/>
    </vehicle>
    <vehicle id="early_morning_1.29" depart="5220.00">
        <route edges="east_to_center center_to_west"/>
    </vehicle>
    <vehicle id="early_morning_2.29" depart="5220.00">
        <route edges="south_to_center center_to_east"/>
    </vehicle>
    <vehicle id="early_morning_3.29" depart="5220.00">
        <route edges="west_to_center center_to_east"/>
    </vehicle>
    <vehicle id="early_morning_4.29" depart="5220.00">
        <route edges="east_to_center center_to_south"/>
    </vehicle>
    <vehicle id="early_morning_5.29" depart="5220.00">
        <route edges="south_to_center center_to_west"/>
    </vehicle>
    <vehicle id="early_morning_6.29" depart="5220.00">
        <route edges="west_to_center center_to_south"/>
    </vehicle>
    <vehicle id="early_morning_1.30" depart="5400.00">
        <route edges="east_to_center center_to_west"/>
    </vehicle>
    <vehicle id="early_morning_2.30" depart="5400.00">
        <route edges="south_to_center center_to_east"/>
    </vehicle>
    <vehicle id="early_morning_3.30" depart="5400.00">
        <route edges="west_to_center center_to_east"/>
    </vehicle>
    <vehicle id="early_morning_4.30" depart="5400.00">
        <route edges="east_to_center center_to_south"/>
    </vehicle>
    <vehicle id="early_morning_5.30" depart="5400.00">
        <route edges="south_to_center center_to_west"/>
    </vehicle>
    <vehicle id="early_morning_6.30" depart="5400.00">
        <route edges="west_to_center center_to_south"/>
    </vehicle>
    <vehicle id="early_morning_1.31" depart="5580.00">
        <route edges="east_to_center center_to_west"/>
    </vehicle>
    <vehicle id="early_morning_2.31" depart="5580.00">
        <route edges="south_to_center center_to_east"/>
    </vehicle>
    <vehicle id="early_morning_3.31" depart="5580.00">
        <route edges="west_to_center center_to_east"/>
    </vehicle>
    <vehicle id="early_morning_4.31" depart="5580.00">
        <route edges="east_to_center center_to_south"/>
    </vehicle>
    <vehicle id="early_morning_5.31" depart="5580.00">
        <route edges="south_to_center center_to_west"/>
    </vehicle>
    <vehicle id="early_morning_6.31" depart="5580.00">
        <route edges="west_to_center center_to_south"/>
    </vehicle>
    <vehicle id="early_morning_1.32" depart="5760.00">
        <route edges="east_to_center center_to_west"/>
    </vehicle>
    <vehicle id="early_morning_2.32" depart="5760.00">
        <route edges="south_to_center center_to_east"/>
    </vehicle>
    <vehicle id="early_morning_3.32" depart="5760.00">
        <route edges="west_to_center center_to_east"/>
    </vehicle>
    <vehicle id="early_morning_4.32" depart="5760.00">
        <route edges="east_to_center center_to_south"/>
    </vehicle>
    <vehicle id="early_morning_5.32" depart="5760.00">
        <route edges="south_to_center center_to_west"/>
    </vehicle>
    <vehicle id="early_morning_6.32" depart="5760.00">
        <route edges="west_to_center center_to_south"/>
    </vehicle>
    <vehicle id="early_morning_1.33" depart="5940.00">
        <route edges="east_to_center center_to_west"/>
    </vehicle>
    <vehicle id="early_morning_2.33" depart="5940.00">
        <route edges="south_to_center center_to_east"/>
    </vehicle>
    <vehicle id="early_morning_3.33" depart="5940.00">
        <route edges="west_to_center center_to_east"/>
    </vehicle>
    <vehicle id="early_morning_4.33" depart="5940.00">
        <route edges="east_to_center center_to_south"/>
    </vehicle>
    <vehicle id="early_morning_5.33" depart="5940.00">
        <route edges="south_to_center center_to_west"/>
    </vehicle>
    <vehicle id="early_morning_6.33" depart="5940.00">
        <route edges="west_to_center center_to_south"/>
    </vehicle>
    <vehicle id="early_morning_1.34" depart="6120.00">
        <route edges="east_to_center center_to_west"/>
    </vehicle>
    <vehicle id="early_morning_2.34" depart="6120.00">
        <route edges="south_to_center center_to_east"/>
    </vehicle>
    <vehicle id="early_morning_3.34" depart="6120.00">
        <route edges="west_to_center center_to_east"/>
    </vehicle>
    <vehicle id="early_morning_4.34" depart="6120.00">
        <route edges="east_to_center center_to_south"/>
    </vehicle>
    <vehicle id="early_morning_5.34" depart="6120.00">
        <route edges="south_to_center center_to_west"/>
    </vehicle>
    <vehicle id="early_morning_6.34" depart="6120.00">
        <route edges="west_to_center center_to_south"/>
    </vehicle>
    <vehicle id="early_morning_1.35" depart="6300.00">
        <route edges="east_to_center center_to_west"/>
    </vehicle>
    <vehicle id="early_morning_2.35" depart="6300.00">
        <route edges="south_to_center center_to_east"/>
    </vehicle>
    <vehicle id="early_morning_3.35" depart="6300.00">
        <route edges="west_to_center center_to_east"/>
    </vehicle>
    <vehicle id="early_morning_4.35" depart="6300.00">
        <route edges="east_to_center center_to_south"/>
    </vehicle>
    <vehicle id="early_morning_5.35" depart="6300.00">
        <route edges="south_to_center center_to_west"/>
    </vehicle>
    <vehicle id="early_morning_6.35" depart="6300.00">
        <route edges="west_to_center center_to_south"/>
    </vehicle>
    <vehicle id="early_morning_1.36" depart="6480.00">
        <route edges="east_to_center center_to_west"/>
    </vehicle>
    <vehicle id="early_morning_2.36" depart="6480.00">
        <route edges="south_to_center center_to_east"/>
    </vehicle>
    <vehicle id="early_morning_3.36" depart="6480.00">
        <route edges="west_to_center center_to_east"/>
    </vehicle>
    <vehicle id="early_morning_4.36" depart="6480.00">
        <route edges="east_to_center center_to_south"/>
    </vehicle>
    <vehicle id="early_morning_5.36" depart="6480.00">
        <route edges="south_to_center center_to_west"/>
    </vehicle>
    <vehicle id="early_morning_6.36" depart="6480.00">
        <route edges="west_to_center center_to_south"/>
    </vehicle>
    <vehicle id="early_morning_1.37" depart="6660.00">
        <route edges="east_to_center center_to_west"/>
    </vehicle>
    <vehicle id="early_morning_2.37" depart="6660.00">
        <route edges="south_to_center center_to_east"/>
    </vehicle>
    <vehicle id="early_morning_3.37" depart="6660.00">
        <route edges="west_to_center center_to_east"/>
    </vehicle>
    <vehicle id="early_morning_4.37" depart="6660.00">
        <route edges="east_to_center center_to_south"/>
    </vehicle>
    <vehicle id="early_morning_5.37" depart="6660.00">
        <route edges="south_to_center center_to_west"/>
    </vehicle>
    <vehicle id="early_morning_6.37" depart="6660.00">
        <route edges="west_to_center center_to_south"/>
    </vehicle>
    <vehicle id="early_morning_1.38" depart="6840.00">
        <route edges="east_to_center center_to_west"/>
    </vehicle>
    <vehicle id="early_morning_2.38" depart="6840.00">
        <route edges="south_to_center center_to_east"/>
    </vehicle>
    <vehicle id="early_morning_3.38" depart="6840.00">
        <route edges="west_to_center center_to_east"/>
    </vehicle>
    <vehicle id="early_morning_4.38" depart="6840.00">
        <route edges="east_to_center center_to_south"/>
    </vehicle>
    <vehicle id="early_morning_5.38" depart="6840.00">
        <route edges="south_to_center center_to_west"/>
    </vehicle>
    <vehicle id="early_morning_6.38" depart="6840.00">
        <route edges="west_to_center center_to_south"/>
    </vehicle>
    <vehicle id="base_1.0" depart="7000.00">