<?xml version="1.0" encoding="UTF-8"?>

<!-- generated on 2025-05-12 21:49:01 by Eclipse SUMO duarouter Version 1.18.0
<configuration xmlns:xsi="http://www.w3.org/2001/XMLSchema-instance" xsi:noNamespaceSchemaLocation="http://sumo.dlr.de/xsd/duarouterConfiguration.xsd">

    <input>
        <net-file value="/home/pmlam/Workspaces/sumo_ws/traffic_optimize/traffic/route/../network/three_way.net.xml"/>
        <route-files value="/home/pmlam/Workspaces/sumo_ws/traffic_optimize/traffic/route/demand.rou.xml"/>
    </input>

    <output>
        <output-file value="/home/pmlam/Workspaces/sumo_ws/traffic_optimize/traffic/route/output/trips.rou.xml"/>
    </output>

    <random_number>
        <seed value="13247"/>
    </random_number>

</configuration>
-->

<routes xmlns:xsi="http://www.w3.org/2001/XMLSchema-instance" xsi:noNamespaceSchemaLocation="http://sumo.dlr.de/xsd/routes_file.xsd">
    <vehicle id="early_morning_6.0" depart="109.00">
        <route edges="west_to_center center_to_south"/>
    </vehicle>
    <vehicle id="early_morning_1.0" depart="173.00">
        <route edges="east_to_center center_to_west"/>
    </vehicle>
    <vehicle id="early_morning_3.0" depart="195.00">
        <route edges="west_to_center center_to_east"/>
    </vehicle>
    <vehicle id="early_morning_1.1" depart="196.00">
        <route edges="east_to_center center_to_west"/>
    </vehicle>
    <vehicle id="early_morning_3.1" depart="196.00">
        <route edges="west_to_center center_to_east"/>
    </vehicle>
    <vehicle id="early_morning_2.0" depart="215.00">
        <route edges="south_to_center center_to_east"/>
    </vehicle>
    <vehicle id="early_morning_5.0" depart="223.00">
        <route edges="south_to_center center_to_west"/>
    </vehicle>
    <vehicle id="early_morning_6.1" depart="224.00">
        <route edges="west_to_center center_to_south"/>
    </vehicle>
    <vehicle id="early_morning_3.2" depart="228.00">
        <route edges="west_to_center center_to_east"/>
    </vehicle>
    <vehicle id="early_morning_6.2" depart="265.00">
        <route edges="west_to_center center_to_south"/>
    </vehicle>
    <vehicle id="early_morning_3.3" depart="481.00">
        <route edges="west_to_center center_to_east"/>
    </vehicle>
    <vehicle id="early_morning_2.1" depart="535.00">
        <route edges="south_to_center center_to_east"/>
    </vehicle>
    <vehicle id="early_morning_3.4" depart="592.00">
        <route edges="west_to_center center_to_east"/>
    </vehicle>
    <vehicle id="early_morning_5.1" depart="680.00">
        <route edges="south_to_center center_to_west"/>
    </vehicle>
    <vehicle id="early_morning_6.3" depart="744.00">
        <route edges="west_to_center center_to_south"/>
    </vehicle>
    <vehicle id="early_morning_4.0" depart="752.00">
        <route edges="east_to_center center_to_south"/>
    </vehicle>
    <vehicle id="early_morning_5.2" depart="852.00">
        <route edges="south_to_center center_to_west"/>
    </vehicle>
    <vehicle id="early_morning_3.5" depart="859.00">
        <route edges="west_to_center center_to_east"/>
    </vehicle>
    <vehicle id="early_morning_3.6" depart="897.00">
        <route edges="west_to_center center_to_east"/>
    </vehicle>
    <vehicle id="early_morning_2.2" depart="907.00">
        <route edges="south_to_center center_to_east"/>
    </vehicle>
    <vehicle id="early_morning_3.7" depart="935.00">
        <route edges="west_to_center center_to_east"/>
    </vehicle>
    <vehicle id="early_morning_1.2" depart="1018.00">
        <route edges="east_to_center center_to_west"/>
    </vehicle>
    <vehicle id="early_morning_5.3" depart="1060.00">
        <route edges="south_to_center center_to_west"/>
    </vehicle>
    <vehicle id="early_morning_1.3" depart="1088.00">
        <route edges="east_to_center center_to_west"/>
    </vehicle>
    <vehicle id="early_morning_4.1" depart="1117.00">
        <route edges="east_to_center center_to_south"/>
    </vehicle>
    <vehicle id="early_morning_1.4" depart="1207.00">
        <route edges="east_to_center center_to_west"/>
    </vehicle>
    <vehicle id="early_morning_6.4" depart="1243.00">
        <route edges="west_to_center center_to_south"/>
    </vehicle>
    <vehicle id="early_morning_1.5" depart="1252.00">
        <route edges="east_to_center center_to_west"/>
    </vehicle>
    <vehicle id="early_morning_1.6" depart="1256.00">
        <route edges="east_to_center center_to_west"/>
    </vehicle>
    <vehicle id="early_morning_1.7" depart="1318.00">
        <route edges="east_to_center center_to_west"/>
    </vehicle>
    <vehicle id="early_morning_5.4" depart="1334.00">
        <route edges="south_to_center center_to_west"/>
    </vehicle>
    <vehicle id="early_morning_3.8" depart="1402.00">
        <route edges="west_to_center center_to_east"/>
    </vehicle>
    <vehicle id="early_morning_2.3" depart="1410.00">
        <route edges="south_to_center center_to_east"/>
    </vehicle>
    <vehicle id="early_morning_6.5" depart="1439.00">
        <route edges="west_to_center center_to_south"/>
    </vehicle>
    <vehicle id="early_morning_3.9" depart="1538.00">
        <route edges="west_to_center center_to_east"/>
    </vehicle>
    <vehicle id="early_morning_4.2" depart="1575.00">
        <route edges="east_to_center center_to_south"/>
    </vehicle>
    <vehicle id="early_morning_4.3" depart="1579.00">
        <route edges="east_to_center center_to_south"/>
    </vehicle>
    <vehicle id="early_morning_1.8" depart="1586.00">
        <route edges="east_to_center center_to_west"/>
    </vehicle>
    <vehicle id="early_morning_1.9" depart="1605.00">
        <route edges="east_to_center center_to_west"/>
    </vehicle>
    <vehicle id="early_morning_4.4" depart="1691.00">
        <route edges="east_to_center center_to_south"/>
    </vehicle>
    <vehicle id="early_morning_2.4" depart="1757.00">
        <route edges="south_to_center center_to_east"/>
    </vehicle>
    <vehicle id="early_morning_5.5" depart="1759.00">
        <route edges="south_to_center center_to_west"/>
    </vehicle>
    <vehicle id="early_morning_1.10" depart="1812.00">
        <route edges="east_to_center center_to_west"/>
    </vehicle>
    <vehicle id="early_morning_6.6" depart="1902.00">
        <route edges="west_to_center center_to_south"/>
    </vehicle>
    <vehicle id="early_morning_6.7" depart="1917.00">
        <route edges="west_to_center center_to_south"/>
    </vehicle>
    <vehicle id="early_morning_2.5" depart="1936.00">
        <route edges="south_to_center center_to_east"/>
    </vehicle>
    <vehicle id="early_morning_3.10" depart="1964.00">
        <route edges="west_to_center center_to_east"/>
    </vehicle>
    <vehicle id="early_morning_1.11" depart="2009.00">
        <route edges="east_to_center center_to_west"/>
    </vehicle>
    <vehicle id="early_morning_3.11" depart="2050.00">
        <route edges="west_to_center center_to_east"/>
    </vehicle>
    <vehicle id="early_morning_3.12" depart="2066.00">
        <route edges="west_to_center center_to_east"/>
    </vehicle>
    <vehicle id="early_morning_3.13" depart="2101.00">
        <route edges="west_to_center center_to_east"/>
    </vehicle>
    <vehicle id="early_morning_1.12" depart="2179.00">
        <route edges="east_to_center center_to_west"/>
    </vehicle>
    <vehicle id="early_morning_1.13" depart="2187.00">
        <route edges="east_to_center center_to_west"/>
    </vehicle>
    <vehicle id="early_morning_1.14" depart="2219.00">
        <route edges="east_to_center center_to_west"/>
    </vehicle>
    <vehicle id="early_morning_1.15" depart="2227.00">
        <route edges="east_to_center center_to_west"/>
    </vehicle>
    <vehicle id="early_morning_3.14" depart="2252.00">
        <route edges="west_to_center center_to_east"/>
    </vehicle>
    <vehicle id="early_morning_3.15" depart="2272.00">
        <route edges="west_to_center center_to_east"/>
    </vehicle>
    <vehicle id="early_morning_6.8" depart="2284.00">
        <route edges="west_to_center center_to_south"/>
    </vehicle>
    <vehicle id="early_morning_2.6" depart="2289.00">
        <route edges="south_to_center center_to_east"/>
    </vehicle>
    <vehicle id="early_morning_5.6" depart="2318.00">
        <route edges="south_to_center center_to_west"/>
    </vehicle>
    <vehicle id="early_morning_6.9" depart="2321.00">
        <route edges="west_to_center center_to_south"/>
    </vehicle>
    <vehicle id="early_morning_1.16" depart="2322.00">
        <route edges="east_to_center center_to_west"/>
    </vehicle>
    <vehicle id="early_morning_5.7" depart="2324.00">
        <route edges="south_to_center center_to_west"/>
    </vehicle>
    <vehicle id="early_morning_6.10" depart="2354.00">
        <route edges="west_to_center center_to_south"/>
    </vehicle>
    <vehicle id="early_morning_3.16" depart="2438.00">
        <route edges="west_to_center center_to_east"/>
    </vehicle>
    <vehicle id="early_morning_4.5" depart="2510.00">
        <route edges="east_to_center center_to_south"/>
    </vehicle>
    <vehicle id="early_morning_6.11" depart="2518.00">
        <route edges="west_to_center center_to_south"/>
    </vehicle>
    <vehicle id="early_morning_2.7" depart="2519.00">
        <route edges="south_to_center center_to_east"/>
    </vehicle>
    <vehicle id="early_morning_3.17" depart="2527.00">
        <route edges="west_to_center center_to_east"/>
    </vehicle>
    <vehicle id="early_morning_1.17" depart="2537.00">
        <route edges="east_to_center center_to_west"/>
    </vehicle>
    <vehicle id="early_morning_6.12" depart="2563.00">
        <route edges="west_to_center center_to_south"/>
    </vehicle>
    <vehicle id="early_morning_1.18" depart="2583.00">
        <route edges="east_to_center center_to_west"/>
    </vehicle>
    <vehicle id="early_morning_6.13" depart="2624.00">
        <route edges="west_to_center center_to_south"/>
    </vehicle>
    <vehicle id="early_morning_4.6" depart="2657.00">
        <route edges="east_to_center center_to_south"/>
    </vehicle>
    <vehicle id="early_morning_3.18" depart="2690.00">
        <route edges="west_to_center center_to_east"/>
    </vehicle>
    <vehicle id="early_morning_2.8" depart="2720.00">
        <route edges="south_to_center center_to_east"/>
    </vehicle>
    <vehicle id="early_morning_1.19" depart="2741.00">
        <route edges="east_to_center center_to_west"/>
    </vehicle>
    <vehicle id="early_morning_1.20" depart="2779.00">
        <route edges="east_to_center center_to_west"/>
    </vehicle>
    <vehicle id="early_morning_3.19" depart="2788.00">
        <route edges="west_to_center center_to_east"/>
    </vehicle>
    <vehicle id="early_morning_4.7" depart="2840.00">
        <route edges="east_to_center center_to_south"/>
    </vehicle>
    <vehicle id="early_morning_4.8" depart="2871.00">
        <route edges="east_to_center center_to_south"/>
    </vehicle>
    <vehicle id="early_morning_3.20" depart="2876.00">
        <route edges="west_to_center center_to_east"/>
    </vehicle>
    <vehicle id="early_morning_2.9" depart="2961.00">
        <route edges="south_to_center center_to_east"/>
    </vehicle>
    <vehicle id="early_morning_1.21" depart="2993.00">
        <route edges="east_to_center center_to_west"/>
    </vehicle>
    <vehicle id="early_morning_1.22" depart="3059.00">
        <route edges="east_to_center center_to_west"/>
    </vehicle>
    <vehicle id="early_morning_5.8" depart="3076.00">
        <route edges="south_to_center center_to_west"/>
    </vehicle>
    <vehicle id="early_morning_3.21" depart="3077.00">
        <route edges="west_to_center center_to_east"/>
    </vehicle>
    <vehicle id="early_morning_4.9" depart="3085.00">
        <route edges="east_to_center center_to_south"/>
    </vehicle>
    <vehicle id="early_morning_5.9" depart="3118.00">
        <route edges="south_to_center center_to_west"/>
    </vehicle>
    <vehicle id="early_morning_6.14" depart="3123.00">
        <route edges="west_to_center center_to_south"/>
    </vehicle>
    <vehicle id="early_morning_5.10" depart="3178.00">
        <route edges="south_to_center center_to_west"/>
    </vehicle>
    <vehicle id="early_morning_4.10" depart="3180.00">
        <route edges="east_to_center center_to_south"/>
    </vehicle>
    <vehicle id="early_morning_3.22" depart="3220.00">
        <route edges="west_to_center center_to_east"/>
    </vehicle>
    <vehicle id="early_morning_6.15" depart="3220.00">
        <route edges="west_to_center center_to_south"/>
    </vehicle>
    <vehicle id="early_morning_3.23" depart="3238.00">
        <route edges="west_to_center center_to_east"/>
    </vehicle>
    <vehicle id="early_morning_4.11" depart="3252.00">
        <route edges="east_to_center center_to_south"/>
    </vehicle>
    <vehicle id="early_morning_2.10" depart="3254.00">
        <route edges="south_to_center center_to_east"/>
    </vehicle>
    <vehicle id="early_morning_1.23" depart="3266.00">
        <route edges="east_to_center center_to_west"/>
    </vehicle>
    <vehicle id="early_morning_4.12" depart="3281.00">
        <route edges="east_to_center center_to_south"/>
    </vehicle>
    <vehicle id="early_morning_5.11" depart="3298.00">
        <route edges="south_to_center center_to_west"/>
    </vehicle>
    <vehicle id="early_morning_3.24" depart="3371.00">
        <route edges="west_to_center center_to_east"/>
    </vehicle>
    <vehicle id="early_morning_6.16" depart="3403.00">
        <route edges="west_to_center center_to_south"/>
    </vehicle>
    <vehicle id="early_morning_3.25" depart="3455.00">
        <route edges="west_to_center center_to_east"/>
    </vehicle>
    <vehicle id="early_morning_3.26" depart="3462.00">
        <route edges="west_to_center center_to_east"/>
    </vehicle>
    <vehicle id="early_morning_4.13" depart="3491.00">
        <route edges="east_to_center center_to_south"/>
    </vehicle>
    <vehicle id="early_morning_1.24" depart="3492.00">
        <route edges="east_to_center center_to_west"/>
    </vehicle>
    <vehicle id="early_morning_5.12" depart="3602.00">
        <route edges="south_to_center center_to_west"/>
    </vehicle>
    <vehicle id="early_morning_4.14" depart="3608.00">
        <route edges="east_to_center center_to_south"/>
    </vehicle>
    <vehicle id="early_morning_2.11" depart="3726.00">
        <route edges="south_to_center center_to_east"/>
    </vehicle>
    <vehicle id="early_morning_6.17" depart="3781.00">
        <route edges="west_to_center center_to_south"/>
    </vehicle>
    <vehicle id="early_morning_5.13" depart="3855.00">
        <route edges="south_to_center center_to_west"/>
    </vehicle>
    <vehicle id="early_morning_2.12" depart="3861.00">
        <route edges="south_to_center center_to_east"/>
    </vehicle>
    <vehicle id="early_morning_6.18" depart="3872.00">
        <route edges="west_to_center center_to_south"/>
    </vehicle>
    <vehicle id="early_morning_6.19" depart="3978.00">
        <route edges="west_to_center center_to_south"/>
    </vehicle>
    <vehicle id="early_morning_3.27" depart="4024.00">
        <route edges="west_to_center center_to_east"/>
    </vehicle>
    <vehicle id="early_morning_1.25" depart="4042.00">
        <route edges="east_to_center center_to_west"/>
    </vehicle>
    <vehicle id="early_morning_3.28" depart="4068.00">
        <route edges="west_to_center center_to_east"/>
    </vehicle>
    <vehicle id="early_morning_2.13" depart="4091.00">
        <route edges="south_to_center center_to_east"/>
    </vehicle>
    <vehicle id="early_morning_2.14" depart="4163.00">
        <route edges="south_to_center center_to_east"/>
    </vehicle>
    <vehicle id="early_morning_3.29" depart="4173.00">
        <route edges="west_to_center center_to_east"/>
    </vehicle>
    <vehicle id="early_morning_5.14" depart="4177.00">
        <route edges="south_to_center center_to_west"/>
    </vehicle>
    <vehicle id="early_morning_4.15" depart="4225.00">
        <route edges="east_to_center center_to_south"/>
    </vehicle>
    <vehicle id="early_morning_5.15" depart="4232.00">
        <route edges="south_to_center center_to_west"/>
    </vehicle>
    <vehicle id="early_morning_6.20" depart="4232.00">
        <route edges="west_to_center center_to_south"/>
    </vehicle>
    <vehicle id="early_morning_3.30" depart="4270.00">
        <route edges="west_to_center center_to_east"/>
    </vehicle>
    <vehicle id="early_morning_2.15" depart="4271.00">
        <route edges="south_to_center center_to_east"/>
    </vehicle>
    <vehicle id="early_morning_3.31" depart="4348.00">
        <route edges="west_to_center center_to_east"/>
    </vehicle>
    <vehicle id="early_morning_5.16" depart="4356.00">
        <route edges="south_to_center center_to_west"/>
    </vehicle>
    <vehicle id="early_morning_1.26" depart="4412.00">
        <route edges="east_to_center center_to_west"/>
    </vehicle>
    <vehicle id="early_morning_1.27" depart="4446.00">
        <route edges="east_to_center center_to_west"/>
    </vehicle>
    <vehicle id="early_morning_5.17" depart="4454.00">
        <route edges="south_to_center center_to_west"/>
    </vehicle>
    <vehicle id="early_morning_3.32" depart="4490.00">
        <route edges="west_to_center center_to_east"/>
    </vehicle>
    <vehicle id="early_morning_6.21" depart="4519.00">
        <route edges="west_to_center center_to_south"/>
    </vehicle>
    <vehicle id="early_morning_3.33" depart="4542.00">
        <route edges="west_to_center center_to_east"/>
    </vehicle>
    <vehicle id="early_morning_2.16" depart="4594.00">
        <route edges="south_to_center center_to_east"/>
    </vehicle>
    <vehicle id="early_morning_1.28" depart="4629.00">
        <route edges="east_to_center center_to_west"/>
    </vehicle>
    <vehicle id="early_morning_4.16" depart="4659.00">
        <route edges="east_to_center center_to_south"/>
    </vehicle>
    <vehicle id="early_morning_6.22" depart="4660.00">
        <route edges="west_to_center center_to_south"/>
    </vehicle>
    <vehicle id="early_morning_3.34" depart="4670.00">
        <route edges="west_to_center center_to_east"/>
    </vehicle>
    <vehicle id="early_morning_3.35" depart="4702.00">
        <route edges="west_to_center center_to_east"/>
    </vehicle>
    <vehicle id="early_morning_3.36" depart="4729.00">
        <route edges="west_to_center center_to_east"/>
    </vehicle>
    <vehicle id="early_morning_5.18" depart="4741.00">
        <route edges="south_to_center center_to_west"/>
    </vehicle>
    <vehicle id="early_morning_1.29" depart="4767.00">
        <route edges="east_to_center center_to_west"/>
    </vehicle>
    <vehicle id="early_morning_3.37" depart="4783.00">
        <route edges="west_to_center center_to_east"/>
    </vehicle>
    <vehicle id="early_morning_6.23" depart="4832.00">
        <route edges="west_to_center center_to_south"/>
    </vehicle>
    <vehicle id="early_morning_1.30" depart="4876.00">
        <route edges="east_to_center center_to_west"/>
    </vehicle>
    <vehicle id="early_morning_6.24" depart="4878.00">
        <route edges="west_to_center center_to_south"/>
    </vehicle>
    <vehicle id="early_morning_4.17" depart="4884.00">
        <route edges="east_to_center center_to_south"/>
    </vehicle>
    <vehicle id="early_morning_6.25" depart="4927.00">
        <route edges="west_to_center center_to_south"/>
    </vehicle>
    <vehicle id="early_morning_5.19" depart="4935.00">
        <route edges="south_to_center center_to_west"/>
    </vehicle>
    <vehicle id="early_morning_5.20" depart="4938.00">
        <route edges="south_to_center center_to_west"/>
    </vehicle>
    <vehicle id="early_morning_3.38" depart="4953.00">
        <route edges="west_to_center center_to_east"/>
    </vehicle>
    <vehicle id="early_morning_1.31" depart="5039.00">
        <route edges="east_to_center center_to_west"/>
    </vehicle>
    <vehicle id="early_morning_4.18" depart="5064.00">
        <route edges="east_to_center center_to_south"/>
    </vehicle>
    <vehicle id="early_morning_4.19" depart="5084.00">
        <route edges="east_to_center center_to_south"/>
    </vehicle>
    <vehicle id="early_morning_3.39" depart="5117.00">
        <route edges="west_to_center center_to_east"/>
    </vehicle>
    <vehicle id="early_morning_3.40" depart="5152.00">
        <route edges="west_to_center center_to_east"/>
    </vehicle>
    <vehicle id="early_morning_5.21" depart="5181.00">
        <route edges="south_to_center center_to_west"/>
    </vehicle>
    <vehicle id="early_morning_1.32" depart="5182.00">
        <route edges="east_to_center center_to_west"/>
    </vehicle>
    <vehicle id="early_morning_1.33" depart="5183.00">
        <route edges="east_to_center center_to_west"/>
    </vehicle>
    <vehicle id="early_morning_2.17" depart="5233.00">
        <route edges="south_to_center center_to_east"/>
    </vehicle>
    <vehicle id="early_morning_6.26" depart="5236.00">
        <route edges="west_to_center center_to_south"/>
    </vehicle>
    <vehicle id="early_morning_5.22" depart="5244.00">
        <route edges="south_to_center center_to_west"/>
    </vehicle>
    <vehicle id="early_morning_1.34" depart="5246.00">
        <route edges="east_to_center center_to_west"/>
    </vehicle>
    <vehicle id="early_morning_5.23" depart="5268.00">
        <route edges="south_to_center center_to_west"/>
    </vehicle>
    <vehicle id="early_morning_1.35" depart="5279.00">
        <route edges="east_to_center center_to_west"/>
    </vehicle>
    <vehicle id="early_morning_6.27" depart="5279.00">
        <route edges="west_to_center center_to_south"/>
    </vehicle>
    <vehicle id="early_morning_1.36" depart="5288.00">
        <route edges="east_to_center center_to_west"/>
    </vehicle>
    <vehicle id="early_morning_2.18" depart="5295.00">
        <route edges="south_to_center center_to_east"/>
    </vehicle>
    <vehicle id="early_morning_6.28" depart="5381.00">
        <route edges="west_to_center center_to_south"/>
    </vehicle>
    <vehicle id="early_morning_4.20" depart="5423.00">
        <route edges="east_to_center center_to_south"/>
    </vehicle>
    <vehicle id="early_morning_4.21" depart="5455.00">
        <route edges="east_to_center center_to_south"/>
    </vehicle>
    <vehicle id="early_morning_2.19" depart="5482.00">
        <route edges="south_to_center center_to_east"/>
    </vehicle>
    <vehicle id="early_morning_1.37" depart="5491.00">
        <route edges="east_to_center center_to_west"/>
    </vehicle>
    <vehicle id="early_morning_3.41" depart="5516.00">
        <route edges="west_to_center center_to_east"/>
    </vehicle>
    <vehicle id="early_morning_5.24" depart="5530.00">
        <route edges="south_to_center center_to_west"/>
    </vehicle>
    <vehicle id="early_morning_1.38" depart="5548.00">
        <route edges="east_to_center center_to_west"/>
    </vehicle>
    <vehicle id="early_morning_3.42" depart="5575.00">
        <route edges="west_to_center center_to_east"/>
    </vehicle>
    <vehicle id="early_morning_2.20" depart="5615.00">
        <route edges="south_to_center center_to_east"/>
    </vehicle>
    <vehicle id="early_morning_3.43" depart="5655.00">
        <route edges="west_to_center center_to_east"/>
    </vehicle>
    <vehicle id="early_morning_6.29" depart="5697.00">
        <route edges="west_to_center center_to_south"/>
    </vehicle>
    <vehicle id="early_morning_3.44" depart="5718.00">
        <route edges="west_to_center center_to_east"/>
    </vehicle>
    <vehicle id="early_morning_3.45" depart="5782.00">
        <route edges="west_to_center center_to_east"/>
    </vehicle>
    <vehicle id="early_morning_5.25" depart="5820.00">
        <route edges="south_to_center center_to_west"/>
    </vehicle>
    <vehicle id="early_morning_6.30" depart="5864.00">
        <route edges="west_to_center center_to_south"/>
    </vehicle>
    <vehicle id="early_morning_6.31" depart="5931.00">
        <route edges="west_to_center center_to_south"/>
    </vehicle>
    <vehicle id="early_morning_3.46" depart="5932.00">
        <route edges="west_to_center center_to_east"/>
    </vehicle>
    <vehicle id="early_morning_4.22" depart="5957.00">
        <route edges="east_to_center center_to_south"/>
    </vehicle>
    <vehicle id="early_morning_4.23" depart="5979.00">
        <route edges="east_to_center center_to_south"/>
    </vehicle>
    <vehicle id="early_morning_5.26" depart="6005.00">
        <route edges="south_to_center center_to_west"/>
    </vehicle>
    <vehicle id="early_morning_6.32" depart="6024.00">
        <route edges="west_to_center center_to_south"/>
    </vehicle>
    <vehicle id="early_morning_3.47" depart="6072.00">
        <route edges="west_to_center center_to_east"/>
    </vehicle>
    <vehicle id="early_morning_5.27" depart="6075.00">
        <route edges="south_to_center center_to_west"/>
    </vehicle>
    <vehicle id="early_morning_5.28" depart="6108.00">
        <route edges="south_to_center center_to_west"/>
    </vehicle>
    <vehicle id="early_morning_2.21" depart="6121.00">
        <route edges="south_to_center center_to_east"/>
    </vehicle>
    <vehicle id="early_morning_5.29" depart="6196.00">
        <route edges="south_to_center center_to_west"/>
    </vehicle>
    <vehicle id="early_morning_3.48" depart="6249.00">
        <route edges="west_to_center center_to_east"/>
    </vehicle>
    <vehicle id="early_morning_6.33" depart="6254.00">
        <route edges="west_to_center center_to_south"/>
    </vehicle>
    <vehicle id="early_morning_5.30" depart="6298.00">
        <route edges="south_to_center center_to_west"/>
    </vehicle>
    <vehicle id="early_morning_2.22" depart="6309.00">
        <route edges="south_to_center center_to_east"/>
    </vehicle>
    <vehicle id="early_morning_6.34" depart="6310.00">
        <route edges="west_to_center center_to_south"/>
    </vehicle>
    <vehicle id="early_morning_1.39" depart="6340.00">
        <route edges="east_to_center center_to_west"/>
    </vehicle>
    <vehicle id="early_morning_4.24" depart="6345.00">
        <route edges="east_to_center center_to_south"/>
    </vehicle>
    <vehicle id="early_morning_3.49" depart="6358.00">
        <route edges="west_to_center center_to_east"/>
    </vehicle>
    <vehicle id="early_morning_1.40" depart="6412.00">
        <route edges="east_to_center center_to_west"/>
    </vehicle>
    <vehicle id="early_morning_2.23" depart="6428.00">
        <route edges="south_to_center center_to_east"/>
    </vehicle>
    <vehicle id="early_morning_5.31" depart="6448.00">
        <route edges="south_to_center center_to_west"/>
    </vehicle>
    <vehicle id="early_morning_2.24" depart="6461.00">
        <route edges="south_to_center center_to_east"/>
    </vehicle>
    <vehicle id="early_morning_4.25" depart="6471.00">
        <route edges="east_to_center center_to_south"/>
    </vehicle>
    <vehicle id="early_morning_2.25" depart="6474.00">
        <route edges="south_to_center center_to_east"/>
    </vehicle>
    <vehicle id="early_morning_6.35" depart="6570.00">
        <route edges="west_to_center center_to_south"/>
    </vehicle>
    <vehicle id="early_morning_5.32" depart="6593.00">
        <route edges="south_to_center center_to_west"/>
    </vehicle>
    <vehicle id="early_morning_1.41" depart="6596.00">
        <route edges="east_to_center center_to_west"/>
    </vehicle>
    <vehicle id="early_morning_1.42" depart="6631.00">
        <route edges="east_to_center center_to_west"/>
    </vehicle>
    <vehicle id="early_morning_5.33" depart="6663.00">
        <route edges="south_to_center center_to_west"/>
    </vehicle>
    <vehicle id="early_morning_5.34" depart="6742.00">
        <route edges="south_to_center center_to_west"/>
    </vehicle>
    <vehicle id="early_morning_2.26" depart="6745.00">
        <route edges="south_to_center center_to_east"/>
    </vehicle>
    <vehicle id="early_morning_1.43" depart="6755.00">
        <route edges="east_to_center center_to_west"/>
    </vehicle>
    <vehicle id="early_morning_2.27" depart="6761.00">
        <route edges="south_to_center center_to_east"/>
    </vehicle>
    <vehicle id="early_morning_1.44" depart="6780.00">
        <route edges="east_to_center center_to_west"/>
    </vehicle>
    <vehicle id="early_morning_6.36" depart="6801.00">
        <route edges="west_to_center center_to_south"/>
    </vehicle>
    <vehicle id="early_morning_3.50" depart="6806.00">
        <route edges="west_to_center center_to_east"/>
    </vehicle>
    <vehicle id="early_morning_4.26" depart="6821.00">
        <route edges="east_to_center center_to_south"/>
    </vehicle>
    <vehicle id="early_morning_2.28" depart="6825.00">
        <route edges="south_to_center center_to_east"/>
    </vehicle>
    <vehicle id="early_morning_1.45" depart="6833.00">
        <route edges="east_to_center center_to_west"/>
    </vehicle>
    <vehicle id="early_morning_1.46" depart="6848.00">
        <route edges="east_to_center center_to_west"/>
    </vehicle>
    <vehicle id="early_morning_4.27" depart="6945.00">
        <route edges="east_to_center center_to_south"/>
    </vehicle>
    <vehicle id="early_morning_5.35" depart="6963.00">
        <route edges="south_to_center center_to_west"/>
    </vehicle>
    <vehicle id="early_morning_6.37" depart="6985.00">
        <route edges="west_to_center center_to_south"/>
    </vehicle>
    <vehicle id="morning_1.0" depart="7005.00">
        <route edges="east_to_center center_to_west"/>
    </vehicle>
    <vehicle id="base_1.0" depart="7011.00">
        <route edges="east_to_center center_to_west"/>
    </vehicle>
    <vehicle id="base_6.0" depart="7014.00">
        <route edges="west_to_center center_to_south"/>
    </vehicle>
    <vehicle id="morning_5.0" depart="7021.00">